3
* (null), Energy   -1000.0000000
O    -1.163319   -0.000000   -0.000000    0.000000   -0.663094    0.001444
O     1.163319   -0.000000   -0.000000   -0.000000   -0.663094    0.001444
C     0.000000    0.000000    0.000000    0.000000    1.766520   -0.003847
3
* Frequency(5)  652.6170
O    -1.163319   -0.075357    0.000164    0.000000   -0.663094    0.001444
O     1.163319   -0.075357    0.000164   -0.000000   -0.663094    0.001444
C     0.000000    0.200756   -0.000437    0.000000    1.766520   -0.003847
3
* Frequency(8) 2470.5071
O    -1.087962   -0.000000   -0.000000    0.663095    0.000000    0.000000
O     1.238676   -0.000000   -0.000000    0.663096   -0.000000   -0.000000
C    -0.200756    0.000000    0.000000   -1.766525    0.000000   -0.000000
3
* Frequency(5)  652.6170
O    -1.163319   -0.194292    0.000423    0.000000   -0.663094    0.001444
O     1.163319   -0.194292    0.000423   -0.000000   -0.663094    0.001444
C     0.000000    0.517605   -0.001127    0.000000    1.766520   -0.003847
3
* Frequency(5)  652.6170
O    -1.163319   -0.224981    0.000490    0.000000   -0.663094    0.001444
O     1.163319   -0.224981    0.000490   -0.000000   -0.663094    0.001444
C     0.000000    0.599363   -0.001305    0.000000    1.766520   -0.003847
3
* Frequency(5)  652.6170
O    -1.163319   -0.231290    0.000504    0.000000   -0.663094    0.001444
O     1.163319   -0.231290    0.000504   -0.000000   -0.663094    0.001444
C     0.000000    0.616170   -0.001342    0.000000    1.766520   -0.003847
3
* Frequency(5)  652.6170
O    -1.163319   -0.212535    0.000463    0.000000   -0.663094    0.001444
O     1.163319   -0.212535    0.000463   -0.000000   -0.663094    0.001444
C     0.000000    0.566206   -0.001233    0.000000    1.766520   -0.003847
3
* Frequency(5)  652.6170
O    -1.163319   -0.170749    0.000372    0.000000   -0.663094    0.001444
O     1.163319   -0.170749    0.000372   -0.000000   -0.663094    0.001444
C     0.000000    0.454885   -0.000991    0.000000    1.766520   -0.003847
3
* Frequency(5)  652.6170
O    -1.163319   -0.110459    0.000241    0.000000   -0.663094    0.001444
O     1.163319   -0.110459    0.000241   -0.000000   -0.663094    0.001444
C     0.000000    0.294270   -0.000641    0.000000    1.766520   -0.003847
3
* Frequency(5)  652.6170
O    -1.163319   -0.038200    0.000083    0.000000   -0.663094    0.001444
O     1.163319   -0.038200    0.000083   -0.000000   -0.663094    0.001444
C     0.000000    0.101766   -0.000222    0.000000    1.766520   -0.003847
3
* Frequency(5)  652.6170
O    -1.163319    0.038200   -0.000083    0.000000   -0.663094    0.001444
O     1.163319    0.038200   -0.000083   -0.000000   -0.663094    0.001444
C     0.000000   -0.101766    0.000222    0.000000    1.766520   -0.003847
3
* Frequency(5)  652.6170
O    -1.163319    0.110459   -0.000241    0.000000   -0.663094    0.001444
O     1.163319    0.110459   -0.000241   -0.000000   -0.663094    0.001444
C     0.000000   -0.294270    0.000641    0.000000    1.766520   -0.003847
3
* Frequency(5)  652.6170
O    -1.163319    0.170749   -0.000372    0.000000   -0.663094    0.001444
O     1.163319    0.170749   -0.000372   -0.000000   -0.663094    0.001444
C     0.000000   -0.454885    0.000991    0.000000    1.766520   -0.003847
3
* Frequency(5)  652.6170
O    -1.163319    0.212535   -0.000463    0.000000   -0.663094    0.001444
O     1.163319    0.212535   -0.000463   -0.000000   -0.663094    0.001444
C     0.000000   -0.566206    0.001233    0.000000    1.766520   -0.003847
3
* Frequency(5)  652.6170
O    -1.163319    0.231290   -0.000504    0.000000   -0.663094    0.001444
O     1.163319    0.231290   -0.000504   -0.000000   -0.663094    0.001444
C     0.000000   -0.616170    0.001342    0.000000    1.766520   -0.003847
3
* Frequency(5)  652.6170
O    -1.163319    0.224981   -0.000490    0.000000   -0.663094    0.001444
O     1.163319    0.224981   -0.000490   -0.000000   -0.663094    0.001444
C     0.000000   -0.599363    0.001305    0.000000    1.766520   -0.003847
3
* Frequency(5)  652.6170
O    -1.163319    0.194292   -0.000423    0.000000   -0.663094    0.001444
O     1.163319    0.194292   -0.000423   -0.000000   -0.663094    0.001444
C     0.000000   -0.517605    0.001127    0.000000    1.766520   -0.003847
3
* Frequency(5)  652.6170
O    -1.163319    0.142548   -0.000310    0.000000   -0.663094    0.001444
O     1.163319    0.142548   -0.000310   -0.000000   -0.663094    0.001444
C     0.000000   -0.379757    0.000827    0.000000    1.766520   -0.003847
3
* Frequency(5)  652.6170
O    -1.163319    0.075357   -0.000164    0.000000   -0.663094    0.001444
O     1.163319    0.075357   -0.000164   -0.000000   -0.663094    0.001444
C     0.000000   -0.200756    0.000437    0.000000    1.766520   -0.003847
3
* Frequency(5)  652.6170
O    -1.163319   -0.000000   -0.000000    0.000000   -0.663094    0.001444
O     1.163319   -0.000000   -0.000000   -0.000000   -0.663094    0.001444
C     0.000000    0.000000    0.000000    0.000000    1.766520   -0.003847
