5
* (null), Energy   -1000.0000000
O    -1.177047    0.172473    0.000040   -0.001797   -0.002074    0.000000
O     1.077671    0.227064   -0.000011   -0.006996   -0.005368    0.000000
C     0.043163   -0.379045    0.000058    0.020566    0.173841   -0.000014
H    -0.048995   -1.486485    0.000150   -0.129689   -1.987634    0.000163
H    -1.060192    1.140592   -0.000037    0.024180    0.034315   -0.000003
5
* Frequency(13) 3035.2015
O    -1.177251    0.172238    0.000040   -0.001797   -0.002074    0.000000
O     1.076876    0.226454   -0.000011   -0.006996   -0.005368    0.000000
C     0.045500   -0.359289    0.000056    0.020566    0.173841   -0.000014
H    -0.063733   -1.712370    0.000169   -0.129689   -1.987634    0.000163
H    -1.057444    1.144492   -0.000037    0.024180    0.034315   -0.000003
5
* Frequency(13) 3035.2015
O    -1.177433    0.172027    0.000040   -0.001797   -0.002074    0.000000
O     1.076167    0.225911   -0.000011   -0.006996   -0.005368    0.000000
C     0.047584   -0.341673    0.000055    0.020566    0.173841   -0.000014
H    -0.076875   -1.913776    0.000185   -0.129689   -1.987634    0.000163
H    -1.054994    1.147969   -0.000038    0.024180    0.034315   -0.000003
5
* Frequency(13) 3035.2015
O    -1.177574    0.171866    0.000040   -0.001797   -0.002074    0.000000
O     1.075621    0.225492   -0.000011   -0.006996   -0.005368    0.000000
C     0.049189   -0.328108    0.000054    0.020566    0.173841   -0.000014
H    -0.086995   -2.068878    0.000198   -0.129689   -1.987634    0.000163
H    -1.053107    1.150647   -0.000038    0.024180    0.034315   -0.000003
5
* Frequency(13) 3035.2015
O    -1.177657    0.171770    0.000040   -0.001797   -0.002074    0.000000
O     1.075297    0.225243   -0.000011   -0.006996   -0.005368    0.000000
C     0.050141   -0.320062    0.000053    0.020566    0.173841   -0.000014
H    -0.092997   -2.160870    0.000206   -0.129689   -1.987634    0.000163
H    -1.051988    1.152235   -0.000038    0.024180    0.034315   -0.000003
5
* Frequency(13) 3035.2015
O    -1.177674    0.171750    0.000040   -0.001797   -0.002074    0.000000
O     1.075231    0.225192   -0.000011   -0.006996   -0.005368    0.000000
C     0.050336   -0.318408    0.000053    0.020566    0.173841   -0.000014
H    -0.094231   -2.179781    0.000207   -0.129689   -1.987634    0.000163
H    -1.051758    1.152561   -0.000038    0.024180    0.034315   -0.000003
5
* Frequency(13) 3035.2015
O    -1.177623    0.171809    0.000040   -0.001797   -0.002074    0.000000
O     1.075429    0.225344   -0.000011   -0.006996   -0.005368    0.000000
C     0.049755   -0.323325    0.000053    0.020566    0.173841   -0.000014
H    -0.090563   -2.123563    0.000202   -0.129689   -1.987634    0.000163
H    -1.052441    1.151591   -0.000038    0.024180    0.034315   -0.000003
5
* Frequency(13) 3035.2015
O    -1.177510    0.171939    0.000040   -0.001797   -0.002074    0.000000
O     1.075870    0.225682   -0.000011   -0.006996   -0.005368    0.000000
C     0.048459   -0.334280    0.000054    0.020566    0.173841   -0.000014
H    -0.082390   -1.998308    0.000192   -0.129689   -1.987634    0.000163
H    -1.053965    1.149428   -0.000038    0.024180    0.034315   -0.000003
5
* Frequency(13) 3035.2015
O    -1.177346    0.172128    0.000040   -0.001797   -0.002074    0.000000
O     1.076506    0.226170   -0.000011   -0.006996   -0.005368    0.000000
C     0.046589   -0.350086    0.000056    0.020566    0.173841   -0.000014
H    -0.070599   -1.817588    0.000177   -0.129689   -1.987634    0.000163
H    -1.056164    1.146308   -0.000038    0.024180    0.034315   -0.000003
5
* Frequency(13) 3035.2015
O    -1.177151    0.172354    0.000040   -0.001797   -0.002074    0.000000
O     1.077268    0.226755   -0.000011   -0.006996   -0.005368    0.000000
C     0.044347   -0.369030    0.000057    0.020566    0.173841   -0.000014
H    -0.056466   -1.600989    0.000160   -0.129689   -1.987634    0.000163
H    -1.058799    1.142569   -0.000037    0.024180    0.034315   -0.000003
5
* Frequency(13) 3035.2015
O    -1.176944    0.172593    0.000040   -0.001797   -0.002074    0.000000
O     1.078074    0.227374   -0.000011   -0.006996   -0.005368    0.000000
C     0.041978   -0.389059    0.000059    0.020566    0.173841   -0.000014
H    -0.041524   -1.371981    0.000141   -0.129689   -1.987634    0.000163
H    -1.061585    1.138615   -0.000037    0.024180    0.034315   -0.000003
5
* Frequency(13) 3035.2015
O    -1.176748    0.172819    0.000040   -0.001797   -0.002074    0.000000
O     1.078837    0.227959   -0.000011   -0.006996   -0.005368    0.000000
C     0.039737   -0.408003    0.000060    0.020566    0.173841   -0.000014
H    -0.027391   -1.155382    0.000123   -0.129689   -1.987634    0.000163
H    -1.064220    1.134876   -0.000037    0.024180    0.034315   -0.000003
5
* Frequency(13) 3035.2015
O    -1.176585    0.173007    0.000040   -0.001797   -0.002074    0.000000
O     1.079473    0.228447   -0.000011   -0.006996   -0.005368    0.000000
C     0.037867   -0.423809    0.000061    0.020566    0.173841   -0.000014
H    -0.015600   -0.974663    0.000108   -0.129689   -1.987634    0.000163
H    -1.066418    1.131756   -0.000036    0.024180    0.034315   -0.000003
5
* Frequency(13) 3035.2015
O    -1.176471    0.173138    0.000040   -0.001797   -0.002074    0.000000
O     1.079913    0.228785   -0.000011   -0.006996   -0.005368    0.000000
C     0.036571   -0.434764    0.000062    0.020566    0.173841   -0.000014
H    -0.007427   -0.849407    0.000098   -0.129689   -1.987634    0.000163
H    -1.067942    1.129593   -0.000036    0.024180    0.034315   -0.000003
5
* Frequency(13) 3035.2015
O    -1.176421    0.173197    0.000040   -0.001797   -0.002074    0.000000
O     1.080111    0.228937   -0.000011   -0.006996   -0.005368    0.000000
C     0.035989   -0.439681    0.000063    0.020566    0.173841   -0.000014
H    -0.003759   -0.793189    0.000093   -0.129689   -1.987634    0.000163
H    -1.068626    1.128623   -0.000036    0.024180    0.034315   -0.000003
5
* Frequency(13) 3035.2015
O    -1.176438    0.173177    0.000040   -0.001797   -0.002074    0.000000
O     1.080045    0.228886   -0.000011   -0.006996   -0.005368    0.000000
C     0.036185   -0.438027    0.000063    0.020566    0.173841   -0.000014
H    -0.004993   -0.812101    0.000095   -0.129689   -1.987634    0.000163
H    -1.068396    1.128949   -0.000036    0.024180    0.034315   -0.000003
5
* Frequency(13) 3035.2015
O    -1.176521    0.173081    0.000040   -0.001797   -0.002074    0.000000
O     1.079721    0.228637   -0.000011   -0.006996   -0.005368    0.000000
C     0.037136   -0.429981    0.000062    0.020566    0.173841   -0.000014
H    -0.010995   -0.904092    0.000103   -0.129689   -1.987634    0.000163
H    -1.067277    1.130537   -0.000036    0.024180    0.034315   -0.000003
5
* Frequency(13) 3035.2015
O    -1.176661    0.172919    0.000040   -0.001797   -0.002074    0.000000
O     1.079175    0.228218   -0.000011   -0.006996   -0.005368    0.000000
C     0.038741   -0.416416    0.000061    0.020566    0.173841   -0.000014
H    -0.021115   -1.059195    0.000115   -0.129689   -1.987634    0.000163
H    -1.065390    1.133215   -0.000037    0.024180    0.034315   -0.000003
5
* Frequency(13) 3035.2015
O    -1.176843    0.172709    0.000040   -0.001797   -0.002074    0.000000
O     1.078466    0.227674   -0.000011   -0.006996   -0.005368    0.000000
C     0.040825   -0.398801    0.000059    0.020566    0.173841   -0.000014
H    -0.034256   -1.260601    0.000132   -0.129689   -1.987634    0.000163
H    -1.062940    1.136692   -0.000037    0.024180    0.034315   -0.000003
5
* Frequency(13) 3035.2015
O    -1.177047    0.172473    0.000040   -0.001797   -0.002074    0.000000
O     1.077671    0.227064   -0.000011   -0.006996   -0.005368    0.000000
C     0.043163   -0.379045    0.000058    0.020566    0.173841   -0.000014
H    -0.048995   -1.486485    0.000150   -0.129689   -1.987634    0.000163
H    -1.060192    1.140592   -0.000037    0.024180    0.034315   -0.000003
