5
* (null), Energy   -1000.0000000
O    -1.177047    0.172473    0.000040   -0.011130   -0.121405    0.000009
O     1.077671    0.227064   -0.000011   -0.001584    0.000220   -0.000000
C     0.043163   -0.379045    0.000058    0.000852   -0.007909    0.000001
H    -0.048995   -1.486485    0.000150    0.007379    0.030185   -0.000004
H    -1.060192    1.140592   -0.000037    0.184275    1.987498   -0.000156
5
* Frequency(14) 3713.8117
O    -1.178312    0.158676    0.000041   -0.011130   -0.121405    0.000009
O     1.077491    0.227089   -0.000011   -0.001584    0.000220   -0.000000
C     0.043259   -0.379943    0.000058    0.000852   -0.007909    0.000001
H    -0.048156   -1.483055    0.000150    0.007379    0.030185   -0.000004
H    -1.039250    1.366461   -0.000055    0.184275    1.987498   -0.000156
5
* Frequency(14) 3713.8117
O    -1.179440    0.146374    0.000042   -0.011130   -0.121405    0.000009
O     1.077331    0.227112   -0.000011   -0.001584    0.000220   -0.000000
C     0.043346   -0.380745    0.000058    0.000852   -0.007909    0.000001
H    -0.047408   -1.479996    0.000149    0.007379    0.030185   -0.000004
H    -1.020577    1.567853   -0.000071    0.184275    1.987498   -0.000156
5
* Frequency(14) 3713.8117
O    -1.180308    0.136901    0.000043   -0.011130   -0.121405    0.000009
O     1.077207    0.227129   -0.000011   -0.001584    0.000220   -0.000000
C     0.043412   -0.381362    0.000058    0.000852   -0.007909    0.000001
H    -0.046833   -1.477641    0.000149    0.007379    0.030185   -0.000004
H    -1.006198    1.722945   -0.000083    0.184275    1.987498   -0.000156
5
* Frequency(14) 3713.8117
O    -1.180824    0.131282    0.000043   -0.011130   -0.121405    0.000009
O     1.077134    0.227139   -0.000011   -0.001584    0.000220   -0.000000
C     0.043452   -0.381728    0.000058    0.000852   -0.007909    0.000001
H    -0.046491   -1.476244    0.000149    0.007379    0.030185   -0.000004
H    -0.997669    1.814931   -0.000090    0.184275    1.987498   -0.000156
5
* Frequency(14) 3713.8117
O    -1.180929    0.130127    0.000043   -0.011130   -0.121405    0.000009
O     1.077119    0.227141   -0.000011   -0.001584    0.000220   -0.000000
C     0.043460   -0.381803    0.000058    0.000852   -0.007909    0.000001
H    -0.046421   -1.475956    0.000149    0.007379    0.030185   -0.000004
H    -0.995916    1.833841   -0.000092    0.184275    1.987498   -0.000156
5
* Frequency(14) 3713.8117
O    -1.180615    0.133561    0.000043   -0.011130   -0.121405    0.000009
O     1.077163    0.227135   -0.000011   -0.001584    0.000220   -0.000000
C     0.043436   -0.381580    0.000058    0.000852   -0.007909    0.000001
H    -0.046630   -1.476810    0.000149    0.007379    0.030185   -0.000004
H    -1.001128    1.777626   -0.000087    0.184275    1.987498   -0.000156
5
* Frequency(14) 3713.8117
O    -1.179913    0.141211    0.000042   -0.011130   -0.121405    0.000009
O     1.077263    0.227121   -0.000011   -0.001584    0.000220   -0.000000
C     0.043382   -0.381081    0.000058    0.000852   -0.007909    0.000001
H    -0.047095   -1.478712    0.000149    0.007379    0.030185   -0.000004
H    -1.012740    1.652380   -0.000077    0.184275    1.987498   -0.000156
5
* Frequency(14) 3713.8117
O    -1.178901    0.152250    0.000041   -0.011130   -0.121405    0.000009
O     1.077407    0.227101   -0.000011   -0.001584    0.000220   -0.000000
C     0.043304   -0.380362    0.000058    0.000852   -0.007909    0.000001
H    -0.047766   -1.481457    0.000150    0.007379    0.030185   -0.000004
H    -1.029495    1.471673   -0.000063    0.184275    1.987498   -0.000156
5
* Frequency(14) 3713.8117
O    -1.177688    0.165479    0.000040   -0.011130   -0.121405    0.000009
O     1.077580    0.227077   -0.000011   -0.001584    0.000220   -0.000000
C     0.043212   -0.379500    0.000058    0.000852   -0.007909    0.000001
H    -0.048570   -1.484746    0.000150    0.007379    0.030185   -0.000004
H    -1.049576    1.255088   -0.000046    0.184275    1.987498   -0.000156
5
* Frequency(14) 3713.8117
O    -1.176406    0.179467    0.000039   -0.011130   -0.121405    0.000009
O     1.077762    0.227052   -0.000011   -0.001584    0.000220   -0.000000
C     0.043114   -0.378589    0.000058    0.000852   -0.007909    0.000001
H    -0.049420   -1.488224    0.000150    0.007379    0.030185   -0.000004
H    -1.070807    1.026096   -0.000028    0.184275    1.987498   -0.000156
5
* Frequency(14) 3713.8117
O    -1.175193    0.192697    0.000038   -0.011130   -0.121405    0.000009
O     1.077935    0.227028   -0.000011   -0.001584    0.000220   -0.000000
C     0.043021   -0.377727    0.000058    0.000852   -0.007909    0.000001
H    -0.050224   -1.491514    0.000151    0.007379    0.030185   -0.000004
H    -1.090888    0.809512   -0.000011    0.184275    1.987498   -0.000156
5
* Frequency(14) 3713.8117
O    -1.174181    0.203735    0.000037   -0.011130   -0.121405    0.000009
O     1.078079    0.227008   -0.000011   -0.001584    0.000220   -0.000000
C     0.042943   -0.377008    0.000058    0.000852   -0.007909    0.000001
H    -0.050895   -1.494258    0.000151    0.007379    0.030185   -0.000004
H    -1.107643    0.628805    0.000003    0.184275    1.987498   -0.000156
5
* Frequency(14) 3713.8117
O    -1.173480    0.211386    0.000037   -0.011130   -0.121405    0.000009
O     1.078179    0.226994   -0.000011   -0.001584    0.000220   -0.000000
C     0.042890   -0.376510    0.000058    0.000852   -0.007909    0.000001
H    -0.051360   -1.496160    0.000151    0.007379    0.030185   -0.000004
H    -1.119255    0.503558    0.000013    0.184275    1.987498   -0.000156
5
* Frequency(14) 3713.8117
O    -1.173165    0.214820    0.000037   -0.011130   -0.121405    0.000009
O     1.078224    0.226988   -0.000011   -0.001584    0.000220   -0.000000
C     0.042866   -0.376286    0.000058    0.000852   -0.007909    0.000001
H    -0.051569   -1.497014    0.000152    0.007379    0.030185   -0.000004
H    -1.124467    0.447344    0.000017    0.184275    1.987498   -0.000156
5
* Frequency(14) 3713.8117
O    -1.173271    0.213665    0.000037   -0.011130   -0.121405    0.000009
O     1.078209    0.226990   -0.000011   -0.001584    0.000220   -0.000000
C     0.042874   -0.376361    0.000058    0.000852   -0.007909    0.000001
H    -0.051499   -1.496727    0.000152    0.007379    0.030185   -0.000004
H    -1.122714    0.466254    0.000016    0.184275    1.987498   -0.000156
5
* Frequency(14) 3713.8117
O    -1.173786    0.208046    0.000037   -0.011130   -0.121405    0.000009
O     1.078135    0.227000   -0.000011   -0.001584    0.000220   -0.000000
C     0.042913   -0.376727    0.000058    0.000852   -0.007909    0.000001
H    -0.051157   -1.495330    0.000151    0.007379    0.030185   -0.000004
H    -1.114186    0.558239    0.000009    0.184275    1.987498   -0.000156
5
* Frequency(14) 3713.8117
O    -1.174655    0.198572    0.000038   -0.011130   -0.121405    0.000009
O     1.078012    0.227017   -0.000011   -0.001584    0.000220   -0.000000
C     0.042979   -0.377344    0.000058    0.000852   -0.007909    0.000001
H    -0.050581   -1.492974    0.000151    0.007379    0.030185   -0.000004
H    -1.099806    0.713331   -0.000004    0.184275    1.987498   -0.000156
5
* Frequency(14) 3713.8117
O    -1.175782    0.186270    0.000039   -0.011130   -0.121405    0.000009
O     1.077851    0.227039   -0.000011   -0.001584    0.000220   -0.000000
C     0.043066   -0.378146    0.000058    0.000852   -0.007909    0.000001
H    -0.049834   -1.489916    0.000151    0.007379    0.030185   -0.000004
H    -1.081133    0.914723   -0.000019    0.184275    1.987498   -0.000156
5
* Frequency(14) 3713.8117
O    -1.177047    0.172473    0.000040   -0.011130   -0.121405    0.000009
O     1.077671    0.227064   -0.000011   -0.001584    0.000220   -0.000000
C     0.043163   -0.379045    0.000058    0.000852   -0.007909    0.000001
H    -0.048995   -1.486485    0.000150    0.007379    0.030185   -0.000004
H    -1.060192    1.140592   -0.000037    0.184275    1.987498   -0.000156
