5
* (null), Energy   -1000.0000000
O    -1.177047    0.172473    0.000040    0.398311    0.134799   -0.000017
O     1.077671    0.227064   -0.000011   -0.480204    0.238430   -0.000008
C     0.043163   -0.379045    0.000058   -0.051225   -0.456795    0.000035
H    -0.048995   -1.486485    0.000150    0.153331   -0.462655    0.000031
H    -1.060192    1.140592   -0.000037    1.756859   -0.018230   -0.000054
5
* Frequency(6)  636.9340
O    -1.131781    0.187793    0.000038    0.398311    0.134799   -0.000017
O     1.023098    0.254161   -0.000012   -0.480204    0.238430   -0.000008
C     0.037341   -0.430957    0.000062   -0.051225   -0.456795    0.000035
H    -0.031570   -1.539064    0.000154    0.153331   -0.462655    0.000031
H    -0.860534    1.138520   -0.000043    1.756859   -0.018230   -0.000054
5
* Frequency(6)  636.9340
O    -1.091421    0.201452    0.000036    0.398311    0.134799   -0.000017
O     0.974440    0.278321   -0.000013   -0.480204    0.238430   -0.000008
C     0.032150   -0.477244    0.000065   -0.051225   -0.456795    0.000035
H    -0.016033   -1.585944    0.000157    0.153331   -0.462655    0.000031
H    -0.682512    1.136673   -0.000049    1.756859   -0.018230   -0.000054
5
* Frequency(6)  636.9340
O    -1.060339    0.211971    0.000035    0.398311    0.134799   -0.000017
O     0.936967    0.296926   -0.000013   -0.480204    0.238430   -0.000008
C     0.028153   -0.512889    0.000068   -0.051225   -0.456795    0.000035
H    -0.004068   -1.622047    0.000159    0.153331   -0.462655    0.000031
H    -0.545417    1.135251   -0.000053    1.756859   -0.018230   -0.000054
5
* Frequency(6)  636.9340
O    -1.041904    0.218209    0.000034    0.398311    0.134799   -0.000017
O     0.914743    0.307961   -0.000014   -0.480204    0.238430   -0.000008
C     0.025782   -0.534031    0.000070   -0.051225   -0.456795    0.000035
H     0.003029   -1.643459    0.000161    0.153331   -0.462655    0.000031
H    -0.464107    1.134407   -0.000055    1.756859   -0.018230   -0.000054
5
* Frequency(6)  636.9340
O    -1.038115    0.219492    0.000034    0.398311    0.134799   -0.000017
O     0.910174    0.310230   -0.000014   -0.480204    0.238430   -0.000008
C     0.025295   -0.538377    0.000070   -0.051225   -0.456795    0.000035
H     0.004488   -1.647861    0.000161    0.153331   -0.462655    0.000031
H    -0.447391    1.134233   -0.000056    1.756859   -0.018230   -0.000054
5
* Frequency(6)  636.9340
O    -1.049380    0.215679    0.000034    0.398311    0.134799   -0.000017
O     0.923756    0.303486   -0.000013   -0.480204    0.238430   -0.000008
C     0.026744   -0.525457    0.000069   -0.051225   -0.456795    0.000035
H     0.000151   -1.634776    0.000160    0.153331   -0.462655    0.000031
H    -0.497082    1.134749   -0.000054    1.756859   -0.018230   -0.000054
5
* Frequency(6)  636.9340
O    -1.074481    0.207185    0.000036    0.398311    0.134799   -0.000017
O     0.954017    0.288461   -0.000013   -0.480204    0.238430   -0.000008
C     0.029972   -0.496671    0.000067   -0.051225   -0.456795    0.000035
H    -0.009512   -1.605620    0.000158    0.153331   -0.462655    0.000031
H    -0.607794    1.135898   -0.000051    1.756859   -0.018230   -0.000054
5
* Frequency(6)  636.9340
O    -1.110696    0.194928    0.000037    0.398311    0.134799   -0.000017
O     0.997678    0.266783   -0.000012   -0.480204    0.238430   -0.000008
C     0.034629   -0.455138    0.000064   -0.051225   -0.456795    0.000035
H    -0.023453   -1.563555    0.000155    0.153331   -0.462655    0.000031
H    -0.767531    1.137555   -0.000046    1.756859   -0.018230   -0.000054
5
* Frequency(6)  636.9340
O    -1.154101    0.180239    0.000039    0.398311    0.134799   -0.000017
O     1.050007    0.240800   -0.000011   -0.480204    0.238430   -0.000008
C     0.040212   -0.405360    0.000060   -0.051225   -0.456795    0.000035
H    -0.040162   -1.513138    0.000152    0.153331   -0.462655    0.000031
H    -0.958982    1.139542   -0.000040    1.756859   -0.018230   -0.000054
5
* Frequency(6)  636.9340
O    -1.199993    0.164708    0.000041    0.398311    0.134799   -0.000017
O     1.105335    0.213329   -0.000010   -0.480204    0.238430   -0.000008
C     0.046114   -0.352730    0.000056   -0.051225   -0.456795    0.000035
H    -0.057828   -1.459833    0.000148    0.153331   -0.462655    0.000031
H    -1.161401    1.141642   -0.000034    1.756859   -0.018230   -0.000054
5
* Frequency(6)  636.9340
O    -1.243398    0.150018    0.000043    0.398311    0.134799   -0.000017
O     1.157664    0.187346   -0.000010   -0.480204    0.238430   -0.000008
C     0.051696   -0.302951    0.000052   -0.051225   -0.456795    0.000035
H    -0.074537   -1.409415    0.000145    0.153331   -0.462655    0.000031
H    -1.352852    1.143629   -0.000028    1.756859   -0.018230   -0.000054
5
* Frequency(6)  636.9340
O    -1.279614    0.137762    0.000044    0.398311    0.134799   -0.000017
O     1.201325    0.165668   -0.000009   -0.480204    0.238430   -0.000008
C     0.056353   -0.261418    0.000049   -0.051225   -0.456795    0.000035
H    -0.088478   -1.367350    0.000142    0.153331   -0.462655    0.000031
H    -1.512589    1.145286   -0.000023    1.756859   -0.018230   -0.000054
5
* Frequency(6)  636.9340
O    -1.304714    0.129267    0.000045    0.398311    0.134799   -0.000017
O     1.231586    0.150643   -0.000008   -0.480204    0.238430   -0.000008
C     0.059581   -0.232632    0.000047   -0.051225   -0.456795    0.000035
H    -0.098141   -1.338195    0.000140    0.153331   -0.462655    0.000031
H    -1.623301    1.146435   -0.000020    1.756859   -0.018230   -0.000054
5
* Frequency(6)  636.9340
O    -1.315980    0.125455    0.000046    0.398311    0.134799   -0.000017
O     1.245168    0.143899   -0.000008   -0.480204    0.238430   -0.000008
C     0.061030   -0.219713    0.000046   -0.051225   -0.456795    0.000035
H    -0.102478   -1.325109    0.000139    0.153331   -0.462655    0.000031
H    -1.672992    1.146951   -0.000018    1.756859   -0.018230   -0.000054
5
* Frequency(6)  636.9340
O    -1.312190    0.126737    0.000046    0.398311    0.134799   -0.000017
O     1.240599    0.146167   -0.000008   -0.480204    0.238430   -0.000008
C     0.060543   -0.224059    0.000046   -0.051225   -0.456795    0.000035
H    -0.101019   -1.329511    0.000140    0.153331   -0.462655    0.000031
H    -1.656277    1.146777   -0.000019    1.756859   -0.018230   -0.000054
5
* Frequency(6)  636.9340
O    -1.293756    0.132976    0.000045    0.398311    0.134799   -0.000017
O     1.218375    0.157202   -0.000009   -0.480204    0.238430   -0.000008
C     0.058172   -0.245200    0.000048   -0.051225   -0.456795    0.000035
H    -0.093922   -1.350924    0.000141    0.153331   -0.462655    0.000031
H    -1.574966    1.145934   -0.000021    1.756859   -0.018230   -0.000054
5
* Frequency(6)  636.9340
O    -1.262674    0.143495    0.000044    0.398311    0.134799   -0.000017
O     1.180903    0.175808   -0.000009   -0.480204    0.238430   -0.000008
C     0.054175   -0.280845    0.000050   -0.051225   -0.456795    0.000035
H    -0.081957   -1.387026    0.000144    0.153331   -0.462655    0.000031
H    -1.437872    1.144511   -0.000026    1.756859   -0.018230   -0.000054
5
* Frequency(6)  636.9340
O    -1.222313    0.157154    0.000042    0.398311    0.134799   -0.000017
O     1.132244    0.199968   -0.000010   -0.480204    0.238430   -0.000008
C     0.048984   -0.327132    0.000054   -0.051225   -0.456795    0.000035
H    -0.066420   -1.433907    0.000147    0.153331   -0.462655    0.000031
H    -1.259850    1.142664   -0.000031    1.756859   -0.018230   -0.000054
5
* Frequency(6)  636.9340
O    -1.177047    0.172473    0.000040    0.398311    0.134799   -0.000017
O     1.077671    0.227064   -0.000011   -0.480204    0.238430   -0.000008
C     0.043163   -0.379045    0.000058   -0.051225   -0.456795    0.000035
H    -0.048995   -1.486485    0.000150    0.153331   -0.462655    0.000031
H    -1.060192    1.140592   -0.000037    1.756859   -0.018230   -0.000054
