5
* (null), Energy   -1000.0000000
O    -1.177047    0.172473    0.000040   -0.132425   -0.026811    0.000002
O     1.077671    0.227064   -0.000011   -0.754785   -0.446104    0.000048
C     0.043163   -0.379045    0.000058    1.179444    0.566956   -0.000059
H    -0.048995   -1.486485    0.000150   -0.608839    0.845735   -0.000085
H    -1.060192    1.140592   -0.000037    0.636770   -0.095294    0.000010
5
* Frequency(12) 1873.5475
O    -1.192097    0.169426    0.000040   -0.132425   -0.026811    0.000002
O     0.991894    0.176367   -0.000005   -0.754785   -0.446104    0.000048
C     0.177200   -0.314613    0.000051    1.179444    0.566956   -0.000059
H    -0.118186   -1.390372    0.000141   -0.608839    0.845735   -0.000085
H    -0.987826    1.129762   -0.000036    0.636770   -0.095294    0.000010
5
* Frequency(12) 1873.5475
O    -1.205515    0.166710    0.000040   -0.132425   -0.026811    0.000002
O     0.915412    0.131164   -0.000001   -0.754785   -0.446104    0.000048
C     0.296713   -0.257164    0.000045    1.179444    0.566956   -0.000059
H    -0.179880   -1.304674    0.000132   -0.608839    0.845735   -0.000085
H    -0.923302    1.120106   -0.000035    0.636770   -0.095294    0.000010
5
* Frequency(12) 1873.5475
O    -1.215849    0.164618    0.000040   -0.132425   -0.026811    0.000002
O     0.856513    0.096352    0.000003   -0.754785   -0.446104    0.000048
C     0.388750   -0.212922    0.000041    1.179444    0.566956   -0.000059
H    -0.227390   -1.238678    0.000125   -0.608839    0.845735   -0.000085
H    -0.873613    1.112670   -0.000034    0.636770   -0.095294    0.000010
5
* Frequency(12) 1873.5475
O    -1.221978    0.163377    0.000040   -0.132425   -0.026811    0.000002
O     0.821580    0.075706    0.000005   -0.754785   -0.446104    0.000048
C     0.443336   -0.186682    0.000038    1.179444    0.566956   -0.000059
H    -0.255568   -1.199536    0.000121   -0.608839    0.845735   -0.000085
H    -0.844142    1.108260   -0.000034    0.636770   -0.095294    0.000010
5
* Frequency(12) 1873.5475
O    -1.223237    0.163122    0.000040   -0.132425   -0.026811    0.000002
O     0.814399    0.071461    0.000006   -0.754785   -0.446104    0.000048
C     0.454558   -0.181288    0.000037    1.179444    0.566956   -0.000059
H    -0.261361   -1.191489    0.000121   -0.608839    0.845735   -0.000085
H    -0.838083    1.107353   -0.000034    0.636770   -0.095294    0.000010
5
* Frequency(12) 1873.5475
O    -1.219492    0.163880    0.000040   -0.132425   -0.026811    0.000002
O     0.835747    0.084079    0.000004   -0.754785   -0.446104    0.000048
C     0.421199   -0.197323    0.000039    1.179444    0.566956   -0.000059
H    -0.244140   -1.215410    0.000123   -0.608839    0.845735   -0.000085
H    -0.856094    1.110049   -0.000034    0.636770   -0.095294    0.000010
5
* Frequency(12) 1873.5475
O    -1.211147    0.165569    0.000040   -0.132425   -0.026811    0.000002
O     0.883312    0.112191    0.000001   -0.754785   -0.446104    0.000048
C     0.346873   -0.233051    0.000043    1.179444    0.566956   -0.000059
H    -0.205773   -1.268706    0.000128   -0.608839    0.845735   -0.000085
H    -0.896221    1.116054   -0.000035    0.636770   -0.095294    0.000010
5
* Frequency(12) 1873.5475
O    -1.199107    0.168007    0.000040   -0.132425   -0.026811    0.000002
O     0.951938    0.152752   -0.000003   -0.754785   -0.446104    0.000048
C     0.239636   -0.284600    0.000048    1.179444    0.566956   -0.000059
H    -0.150416   -1.345601    0.000136   -0.608839    0.845735   -0.000085
H    -0.954118    1.124718   -0.000035    0.636770   -0.095294    0.000010
5
* Frequency(12) 1873.5475
O    -1.184676    0.170929    0.000040   -0.132425   -0.026811    0.000002
O     1.034189    0.201365   -0.000008   -0.754785   -0.446104    0.000048
C     0.111108   -0.346383    0.000054    1.179444    0.566956   -0.000059
H    -0.084069   -1.437764    0.000145   -0.608839    0.845735   -0.000085
H    -1.023509    1.135102   -0.000037    0.636770   -0.095294    0.000010
5
* Frequency(12) 1873.5475
O    -1.169418    0.174018    0.000040   -0.132425   -0.026811    0.000002
O     1.121153    0.252764   -0.000014   -0.754785   -0.446104    0.000048
C    -0.024783   -0.411706    0.000061    1.179444    0.566956   -0.000059
H    -0.013921   -1.535206    0.000155   -0.608839    0.845735   -0.000085
H    -1.096875    1.146082   -0.000038    0.636770   -0.095294    0.000010
5
* Frequency(12) 1873.5475
O    -1.154988    0.176939    0.000040   -0.132425   -0.026811    0.000002
O     1.203404    0.301377   -0.000019   -0.754785   -0.446104    0.000048
C    -0.153311   -0.473489    0.000068    1.179444    0.566956   -0.000059
H     0.052426   -1.627369    0.000164   -0.608839    0.845735   -0.000085
H    -1.166266    1.156466   -0.000039    0.636770   -0.095294    0.000010
5
* Frequency(12) 1873.5475
O    -1.142947    0.179377    0.000039   -0.132425   -0.026811    0.000002
O     1.272031    0.341938   -0.000023   -0.754785   -0.446104    0.000048
C    -0.260548   -0.525038    0.000073    1.179444    0.566956   -0.000059
H     0.107783   -1.704265    0.000172   -0.608839    0.845735   -0.000085
H    -1.224162    1.165131   -0.000040    0.636770   -0.095294    0.000010
5
* Frequency(12) 1873.5475
O    -1.134602    0.181067    0.000039   -0.132425   -0.026811    0.000002
O     1.319595    0.370050   -0.000026   -0.754785   -0.446104    0.000048
C    -0.334874   -0.560766    0.000077    1.179444    0.566956   -0.000059
H     0.146151   -1.757561    0.000178   -0.608839    0.845735   -0.000085
H    -1.264289    1.171136   -0.000040    0.636770   -0.095294    0.000010
5
* Frequency(12) 1873.5475
O    -1.130857    0.181825    0.000039   -0.132425   -0.026811    0.000002
O     1.340943    0.382667   -0.000027   -0.754785   -0.446104    0.000048
C    -0.368233   -0.576802    0.000079    1.179444    0.566956   -0.000059
H     0.163371   -1.781481    0.000180   -0.608839    0.845735   -0.000085
H    -1.282300    1.173831   -0.000041    0.636770   -0.095294    0.000010
5
* Frequency(12) 1873.5475
O    -1.132117    0.181570    0.000039   -0.132425   -0.026811    0.000002
O     1.333762    0.378423   -0.000027   -0.754785   -0.446104    0.000048
C    -0.357011   -0.571407    0.000078    1.179444    0.566956   -0.000059
H     0.157578   -1.773435    0.000179   -0.608839    0.845735   -0.000085
H    -1.276241    1.172924   -0.000041    0.636770   -0.095294    0.000010
5
* Frequency(12) 1873.5475
O    -1.138246    0.180329    0.000039   -0.132425   -0.026811    0.000002
O     1.298829    0.357776   -0.000025   -0.754785   -0.446104    0.000048
C    -0.302424   -0.545168    0.000075    1.179444    0.566956   -0.000059
H     0.129400   -1.734292    0.000175   -0.608839    0.845735   -0.000085
H    -1.246770    1.168514   -0.000040    0.636770   -0.095294    0.000010
5
* Frequency(12) 1873.5475
O    -1.148579    0.178237    0.000040   -0.132425   -0.026811    0.000002
O     1.239931    0.322965   -0.000021   -0.754785   -0.446104    0.000048
C    -0.210388   -0.500926    0.000071    1.179444    0.566956   -0.000059
H     0.081890   -1.668297    0.000169   -0.608839    0.845735   -0.000085
H    -1.197081    1.161078   -0.000039    0.636770   -0.095294    0.000010
5
* Frequency(12) 1873.5475
O    -1.161998    0.175520    0.000040   -0.132425   -0.026811    0.000002
O     1.163448    0.277762   -0.000016   -0.754785   -0.446104    0.000048
C    -0.090875   -0.443476    0.000065    1.179444    0.566956   -0.000059
H     0.020197   -1.582599    0.000160   -0.608839    0.845735   -0.000085
H    -1.132557    1.151422   -0.000038    0.636770   -0.095294    0.000010
5
* Frequency(12) 1873.5475
O    -1.177047    0.172473    0.000040   -0.132425   -0.026811    0.000002
O     1.077671    0.227064   -0.000011   -0.754785   -0.446104    0.000048
C     0.043163   -0.379045    0.000058    1.179444    0.566956   -0.000059
H    -0.048995   -1.486485    0.000150   -0.608839    0.845735   -0.000085
H    -1.060192    1.140592   -0.000037    0.636770   -0.095294    0.000010
