5
* (null), Energy   -1000.0000000
O    -1.177047    0.172473    0.000040   -0.000001   -0.000015   -0.189023
O     1.077671    0.227064   -0.000011   -0.000003   -0.000006   -0.090226
C     0.043163   -0.379045    0.000058    0.000000    0.000013    0.176359
H    -0.048995   -1.486485    0.000150    0.000015    0.000030    0.388015
H    -1.060192    1.140592   -0.000037    0.000042    0.000149    1.942800
5
* Frequency(7)  702.2061
O    -1.177047    0.172472   -0.021442   -0.000001   -0.000015   -0.189023
O     1.077671    0.227064   -0.010265   -0.000003   -0.000006   -0.090226
C     0.043163   -0.379043    0.020100    0.000000    0.000013    0.176359
H    -0.048993   -1.486482    0.044246    0.000015    0.000030    0.388015
H    -1.060187    1.140609    0.220752    0.000042    0.000149    1.942800
5
* Frequency(7)  702.2061
O    -1.177047    0.172470   -0.040595   -0.000001   -0.000015   -0.189023
O     1.077670    0.227063   -0.019407   -0.000003   -0.000006   -0.090226
C     0.043163   -0.379042    0.037971    0.000000    0.000013    0.176359
H    -0.048992   -1.486479    0.083564    0.000015    0.000030    0.388015
H    -1.060183    1.140624    0.417615    0.000042    0.000149    1.942800
5
* Frequency(7)  702.2061
O    -1.177047    0.172469   -0.055345   -0.000001   -0.000015   -0.189023
O     1.077670    0.227063   -0.026448   -0.000003   -0.000006   -0.090226
C     0.043163   -0.379041    0.051733    0.000000    0.000013    0.176359
H    -0.048990   -1.486476    0.113842    0.000015    0.000030    0.388015
H    -1.060179    1.140636    0.569219    0.000042    0.000149    1.942800
5
* Frequency(7)  702.2061
O    -1.177047    0.172468   -0.064094   -0.000001   -0.000015   -0.189023
O     1.077670    0.227062   -0.030624   -0.000003   -0.000006   -0.090226
C     0.043163   -0.379040    0.059895    0.000000    0.000013    0.176359
H    -0.048990   -1.486475    0.131800    0.000015    0.000030    0.388015
H    -1.060177    1.140643    0.659136    0.000042    0.000149    1.942800
5
* Frequency(7)  702.2061
O    -1.177047    0.172468   -0.065892   -0.000001   -0.000015   -0.189023
O     1.077670    0.227062   -0.031482   -0.000003   -0.000006   -0.090226
C     0.043163   -0.379040    0.061573    0.000000    0.000013    0.176359
H    -0.048990   -1.486475    0.135492    0.000015    0.000030    0.388015
H    -1.060177    1.140644    0.677620    0.000042    0.000149    1.942800
5
* Frequency(7)  702.2061
O    -1.177047    0.172469   -0.060546   -0.000001   -0.000015   -0.189023
O     1.077670    0.227062   -0.028930   -0.000003   -0.000006   -0.090226
C     0.043163   -0.379041    0.056585    0.000000    0.000013    0.176359
H    -0.048990   -1.486476    0.124517    0.000015    0.000030    0.388015
H    -1.060178    1.140640    0.622670    0.000042    0.000149    1.942800
5
* Frequency(7)  702.2061
O    -1.177047    0.172470   -0.048634   -0.000001   -0.000015   -0.189023
O     1.077670    0.227063   -0.023244   -0.000003   -0.000006   -0.090226
C     0.043163   -0.379041    0.045471    0.000000    0.000013    0.176359
H    -0.048991   -1.486477    0.100065    0.000015    0.000030    0.388015
H    -1.060181    1.140630    0.500240    0.000042    0.000149    1.942800
5
* Frequency(7)  702.2061
O    -1.177047    0.172471   -0.031448   -0.000001   -0.000015   -0.189023
O     1.077671    0.227063   -0.015041   -0.000003   -0.000006   -0.090226
C     0.043163   -0.379043    0.029436    0.000000    0.000013    0.176359
H    -0.048992   -1.486480    0.064786    0.000015    0.000030    0.388015
H    -1.060185    1.140617    0.323598    0.000042    0.000149    1.942800
5
* Frequency(7)  702.2061
O    -1.177047    0.172472   -0.010849   -0.000001   -0.000015   -0.189023
O     1.077671    0.227064   -0.005209   -0.000003   -0.000006   -0.090226
C     0.043163   -0.379044    0.010218    0.000000    0.000013    0.176359
H    -0.048994   -1.486483    0.022503    0.000015    0.000030    0.388015
H    -1.060189    1.140601    0.111884    0.000042    0.000149    1.942800
5
* Frequency(7)  702.2061
O    -1.177047    0.172474    0.010929   -0.000001   -0.000015   -0.189023
O     1.077671    0.227065    0.005187   -0.000003   -0.000006   -0.090226
C     0.043163   -0.379045   -0.010102    0.000000    0.000013    0.176359
H    -0.048996   -1.486487   -0.022203    0.000015    0.000030    0.388015
H    -1.060194    1.140584   -0.111958    0.000042    0.000149    1.942800
5
* Frequency(7)  702.2061
O    -1.177047    0.172476    0.031528   -0.000001   -0.000015   -0.189023
O     1.077672    0.227066    0.015019   -0.000003   -0.000006   -0.090226
C     0.043163   -0.379047   -0.029320    0.000000    0.000013    0.176359
H    -0.048997   -1.486490   -0.064486    0.000015    0.000030    0.388015
H    -1.060199    1.140567   -0.323672    0.000042    0.000149    1.942800
5
* Frequency(7)  702.2061
O    -1.177047    0.172477    0.048714   -0.000001   -0.000015   -0.189023
O     1.077672    0.227066    0.023223   -0.000003   -0.000006   -0.090226
C     0.043163   -0.379048   -0.045355    0.000000    0.000013    0.176359
H    -0.048999   -1.486493   -0.099765    0.000015    0.000030    0.388015
H    -1.060202    1.140554   -0.500315    0.000042    0.000149    1.942800
5
* Frequency(7)  702.2061
O    -1.177047    0.172478    0.060626   -0.000001   -0.000015   -0.189023
O     1.077672    0.227066    0.028909   -0.000003   -0.000006   -0.090226
C     0.043163   -0.379049   -0.056469    0.000000    0.000013    0.176359
H    -0.049000   -1.486495   -0.124217    0.000015    0.000030    0.388015
H    -1.060205    1.140545   -0.622745    0.000042    0.000149    1.942800
5
* Frequency(7)  702.2061
O    -1.177047    0.172478    0.065972   -0.000001   -0.000015   -0.189023
O     1.077672    0.227067    0.031460   -0.000003   -0.000006   -0.090226
C     0.043163   -0.379049   -0.061457    0.000000    0.000013    0.176359
H    -0.049000   -1.486496   -0.135191    0.000015    0.000030    0.388015
H    -1.060206    1.140540   -0.677695    0.000042    0.000149    1.942800
5
* Frequency(7)  702.2061
O    -1.177047    0.172478    0.064174   -0.000001   -0.000015   -0.189023
O     1.077672    0.227067    0.030602   -0.000003   -0.000006   -0.090226
C     0.043163   -0.379049   -0.059779    0.000000    0.000013    0.176359
H    -0.049000   -1.486495   -0.131499    0.000015    0.000030    0.388015
H    -1.060206    1.140542   -0.659210    0.000042    0.000149    1.942800
5
* Frequency(7)  702.2061
O    -1.177047    0.172478    0.055425   -0.000001   -0.000015   -0.189023
O     1.077672    0.227066    0.026426   -0.000003   -0.000006   -0.090226
C     0.043163   -0.379048   -0.051617    0.000000    0.000013    0.176359
H    -0.048999   -1.486494   -0.113541    0.000015    0.000030    0.388015
H    -1.060204    1.140549   -0.569294    0.000042    0.000149    1.942800
5
* Frequency(7)  702.2061
O    -1.177047    0.172476    0.040675   -0.000001   -0.000015   -0.189023
O     1.077672    0.227066    0.019385   -0.000003   -0.000006   -0.090226
C     0.043163   -0.379047   -0.037855    0.000000    0.000013    0.176359
H    -0.048998   -1.486492   -0.083263    0.000015    0.000030    0.388015
H    -1.060201    1.140560   -0.417689    0.000042    0.000149    1.942800
5
* Frequency(7)  702.2061
O    -1.177047    0.172475    0.021521   -0.000001   -0.000015   -0.189023
O     1.077671    0.227065    0.010243   -0.000003   -0.000006   -0.090226
C     0.043163   -0.379046   -0.019984    0.000000    0.000013    0.176359
H    -0.048997   -1.486489   -0.043946    0.000015    0.000030    0.388015
H    -1.060196    1.140575   -0.220826    0.000042    0.000149    1.942800
5
* Frequency(7)  702.2061
O    -1.177047    0.172473    0.000040   -0.000001   -0.000015   -0.189023
O     1.077671    0.227064   -0.000011   -0.000003   -0.000006   -0.090226
C     0.043163   -0.379045    0.000058    0.000000    0.000013    0.176359
H    -0.048995   -1.486485    0.000150    0.000015    0.000030    0.388015
H    -1.060192    1.140592   -0.000037    0.000042    0.000149    1.942800
