3
* (null), Energy   -1000.0000000
O     0.000000    0.000000    0.090697   -0.139113    0.000000    0.000001
H    -0.756716    0.000000   -0.511349    1.103996    0.000000    0.878345
H     0.756716    0.000000   -0.511349    1.104012    0.000000   -0.878355
3
* Frequency(8) 3880.6112
O    -0.015809    0.000000    0.090697   -0.139113    0.000000    0.000001
H    -0.631253    0.000000   -0.411529    1.103996    0.000000    0.878345
H     0.882181    0.000000   -0.611169    1.104012    0.000000   -0.878355
3
* Frequency(8) 3880.6112
O    -0.029906    0.000000    0.090697   -0.139113    0.000000    0.000001
H    -0.519385    0.000000   -0.322527    1.103996    0.000000    0.878345
H     0.994050    0.000000   -0.700173    1.104012    0.000000   -0.878355
3
* Frequency(8) 3880.6112
O    -0.040761    0.000000    0.090697   -0.139113    0.000000    0.000001
H    -0.433236    0.000000   -0.253986    1.103996    0.000000    0.878345
H     1.080201    0.000000   -0.768714    1.104012    0.000000   -0.878355
3
* Frequency(8) 3880.6112
O    -0.047200    0.000000    0.090698   -0.139113    0.000000    0.000001
H    -0.382141    0.000000   -0.213335    1.103996    0.000000    0.878345
H     1.131296    0.000000   -0.809366    1.104012    0.000000   -0.878355
3
* Frequency(8) 3880.6112
O    -0.048523    0.000000    0.090698   -0.139113    0.000000    0.000001
H    -0.371637    0.000000   -0.204978    1.103996    0.000000    0.878345
H     1.141800    0.000000   -0.817723    1.104012    0.000000   -0.878355
3
* Frequency(8) 3880.6112
O    -0.044589    0.000000    0.090698   -0.139113    0.000000    0.000001
H    -0.402862    0.000000   -0.229821    1.103996    0.000000    0.878345
H     1.110575    0.000000   -0.792880    1.104012    0.000000   -0.878355
3
* Frequency(8) 3880.6112
O    -0.035822    0.000000    0.090697   -0.139113    0.000000    0.000001
H    -0.472433    0.000000   -0.285172    1.103996    0.000000    0.878345
H     1.041003    0.000000   -0.737528    1.104012    0.000000   -0.878355
3
* Frequency(8) 3880.6112
O    -0.023174    0.000000    0.090697   -0.139113    0.000000    0.000001
H    -0.572811    0.000000   -0.365033    1.103996    0.000000    0.878345
H     0.940624    0.000000   -0.657666    1.104012    0.000000   -0.878355
3
* Frequency(8) 3880.6112
O    -0.008014    0.000000    0.090697   -0.139113    0.000000    0.000001
H    -0.693117    0.000000   -0.460749    1.103996    0.000000    0.878345
H     0.820316    0.000000   -0.561949    1.104012    0.000000   -0.878355
3
* Frequency(8) 3880.6112
O     0.008014    0.000000    0.090697   -0.139113    0.000000    0.000001
H    -0.820315    0.000000   -0.561948    1.103996    0.000000    0.878345
H     0.693116    0.000000   -0.460748    1.104012    0.000000   -0.878355
3
* Frequency(8) 3880.6112
O     0.023174    0.000000    0.090697   -0.139113    0.000000    0.000001
H    -0.940621    0.000000   -0.657665    1.103996    0.000000    0.878345
H     0.572808    0.000000   -0.365031    1.104012    0.000000   -0.878355
3
* Frequency(8) 3880.6112
O     0.035822    0.000000    0.090697   -0.139113    0.000000    0.000001
H    -1.040999    0.000000   -0.737525    1.103996    0.000000    0.878345
H     0.472429    0.000000   -0.285169    1.104012    0.000000   -0.878355
3
* Frequency(8) 3880.6112
O     0.044589    0.000000    0.090697   -0.139113    0.000000    0.000001
H    -1.110570    0.000000   -0.792876    1.103996    0.000000    0.878345
H     0.402857    0.000000   -0.229818    1.104012    0.000000   -0.878355
3
* Frequency(8) 3880.6112
O     0.048523    0.000000    0.090697   -0.139113    0.000000    0.000001
H    -1.141795    0.000000   -0.817719    1.103996    0.000000    0.878345
H     0.371631    0.000000   -0.204974    1.104012    0.000000   -0.878355
3
* Frequency(8) 3880.6112
O     0.047200    0.000000    0.090697   -0.139113    0.000000    0.000001
H    -1.131291    0.000000   -0.809362    1.103996    0.000000    0.878345
H     0.382136    0.000000   -0.213332    1.104012    0.000000   -0.878355
3
* Frequency(8) 3880.6112
O     0.040761    0.000000    0.090697   -0.139113    0.000000    0.000001
H    -1.080196    0.000000   -0.768711    1.103996    0.000000    0.878345
H     0.433231    0.000000   -0.253983    1.104012    0.000000   -0.878355
3
* Frequency(8) 3880.6112
O     0.029906    0.000000    0.090697   -0.139113    0.000000    0.000001
H    -0.994047    0.000000   -0.700170    1.103996    0.000000    0.878345
H     0.519382    0.000000   -0.322525    1.104012    0.000000   -0.878355
3
* Frequency(8) 3880.6112
O     0.015810    0.000000    0.090697   -0.139113    0.000000    0.000001
H    -0.882179    0.000000   -0.611168    1.103996    0.000000    0.878345
H     0.631251    0.000000   -0.411528    1.104012    0.000000   -0.878355
3
* Frequency(8) 3880.6112
O     0.000000    0.000000    0.090697   -0.139113    0.000000    0.000001
H    -0.756716    0.000000   -0.511349    1.103996    0.000000    0.878345
H     0.756716    0.000000   -0.511349    1.104012    0.000000   -0.878355
